<?xml version="1.0"?>
<!-- 
Description: Cars around sportcenter k39 to calle5
route0 => inicia k39 autopista sur cl 10
route1 => inicia (norte-sur izq)
route2 => inicia (norte-sur der)
Speed ~ 50 km
-->
<routes>
   <vType id="car" accel="2.6" decel="4.5" sigma="0.5" length="2.5" minGap="3" maxSpeed="14" color="1,1,0"/>
   <vType id="truck" accel="2.6" decel="3.5" sigma="0.5" length="5" minGap="3" maxSpeed="14" color="0,0,1"/>
   <route id="route0" edges=" -60857508 60857452#1 27343895#5 27343895#6 29674934#0 29674934#1 29674934#2 29674934#3 29674934#4 29674934#5 27344118#0 27344118#1 27344118#2 27344118#3 27344118#4 27344118#5 27344118#6 27344118#7 27344118#8 32289987#0 32289987#1 32289987#2 32289987#3 32289987#4 32289987#5 32289987#6 32289987#7 32289987#8 32289987#9 32289987#10 32289987#11 32289987#12 177759531#0 177759531#1 177759531#2 29647523#0 29647523#1 29647523#2 29647523#3 29647523#4 32228036#4 32228036#5 32228036#6 32227989#0 32227989#1 32227989#2 48464630#2 27051816#8 185125212#4 185125212#3 185125212#2 185125212#1 185125212#0 185562952#3 185562952#2 185562952#1 185562952#0 184787689#0 184787689#1 184787689#2 184787689#3 184787689#4"/>
   <flow id="flow0" type="car" route="route0" begin="0" period="5" number="10"/>
   <route id="route1" edges="27051689#5 185125212#27 185125212#26 185125212#25 185125212#24 185125212#23 185125212#22 185125212#21 185125212#20 185125212#19 185125212#18 185125212#17 185125212#16 185125212#15 185125212#14 185125212#13 185125212#12 185125212#11 185125212#10 185125212#9 185125212#8 185125212#7 185125212#6 185125212#5 185125212#4 185125212#3 185125212#2 185125212#1 185125212#0 185562952#3 185562952#2 185562952#1 185562952#0 184787689#0 184787689#1 184787689#2 184787689#3 184787689#4"/>
   <flow id="flow1" type="car" route="route1" begin="1" period="5" number="0"/>
   <route id="route2" edges="27343895#7 27343895#8 27343895#9 27343895#10 27343895#11 27343895#12 27343895#13 27343895#14 27343895#15 33509970#22 33509970#23 33509970#24 33509970#25 33509970#26 33509970#27 33509970#28 32290335#0 32290335#1 32290335#2 32290335#3 32290335#4 32290335#5 32290335#6 32290335#7 32290335#8 32290335#9 32290335#10 32290335#11 32290335#12 32290335#13 32290335#14 32290335#15 32290335#16 32290335#17 32290335#18 32290335#19 32290335#20 32290335#21 32290335#22 32290335#23 32290335#24 32290335#25 32290335#26 32290335#27 32290335#28 32290335#29 32290335#30 32290335#31 32290335#32 32290335#33 32290335#34 32290335#35 -33042784#1 -33042623#1 -33042623#0 28205959#34 28205959#35 28205959#36 28205959#37 28205959#38 28205959#39 28205959#40 28205959#41 28205959#42 28205959#43 28205959#44 28205959#45 28205959#46 28205959#47 28205959#48 28205959#49 28205959#50 28205959#51 28205959#52"/>
   <flow id="flow2" type="truck" route="route2" begin="2" period="5" number="0"/>
</routes>
