<?xml version="1.0" encoding="iso-8859-1"?>

<!-- generated on 05/07/13 15:42:41 by SUMO polyconvert Version 0.13.1
<?xml version="1.0" encoding="iso-8859-1"?>

<configuration xmlns:xsi="http://www.w3.org/2001/XMLSchema-instance" xsi:noNamespaceSchemaLocation="http://sumo.sf.net/xsd/polyconvertConfiguration.xsd">

    <input>
        <net-file value="map6.net.xml"/>
        <osm-files value="map6.osm"/>
        <type-file value="typemap.xml"/>
    </input>

    <output>
        <output-file value="map6.poly.xml"/>
    </output>

    <projection>
        <proj value="+proj=utm +zone=18 +ellps=WGS84 +datum=WGS84 +units=m +no_defs"/>
    </projection>

    <processing>
        <offset.x value="-324047"/>
        <offset.y value="-361966"/>
    </processing>

</configuration>
-->

<shapes>
    <poly id="106577882" type="building" color="1.00,0.90,0.90" fill="1" layer="2" shape="2785.91,19270.57 2802.30,19279.28 2812.20,19252.28 2789.38,19248.64 2785.91,19270.57"/>
    <poly id="106577892" type="tourism" color="0.81,0.96,0.79" fill="1" layer="2" shape="2735.03,19459.45 2665.94,19429.72 2624.49,19407.05 2602.95,19363.05 2651.05,19334.17 2672.65,19312.92 2694.25,19291.66 2703.06,19277.08 2711.83,19237.66 2744.12,19231.54 2792.57,19234.19 2822.74,19239.90 2848.65,19248.96 2871.55,19271.36 2935.48,19243.96 2993.41,19267.21 3039.33,19302.70 2921.36,19368.29 2879.36,19394.75 2848.06,19443.31 2735.03,19459.45"/>
    <poly id="106577893" type="building" color="1.00,0.90,0.90" fill="1" layer="2" shape="2825.99,19295.30 2832.05,19276.20 2835.59,19279.20 2863.17,19297.37 2853.14,19316.18 2825.99,19295.30"/>
    <poly id="106580390" type="building" color="1.00,0.90,0.90" fill="1" layer="2" shape="2902.06,19287.31 2896.57,19271.60 2907.93,19266.49 2909.09,19269.58 2914.01,19282.71 2907.14,19285.36 2902.06,19287.31"/>
    <poly id="107655329" type="sport" color="0.31,0.90,0.49" fill="1" layer="2" shape="5119.12,16531.58 5132.33,16532.16 5133.08,16505.27 5118.77,16504.68 5119.12,16531.58"/>
    <poly id="107655330" type="building" color="1.00,0.90,0.90" fill="1" layer="2" shape="5245.58,16597.62 5264.08,16613.96 5290.56,16585.18 5271.65,16568.84 5245.58,16597.62"/>
    <poly id="107655331" type="building" color="1.00,0.90,0.90" fill="1" layer="2" shape="5270.36,16518.16 5344.65,16490.49 5357.16,16525.59 5283.67,16552.06 5270.36,16518.16"/>
    <poly id="107655332" type="building" color="1.00,0.90,0.90" fill="1" layer="2" shape="5352.43,16581.48 5372.92,16574.66 5385.43,16609.77 5365.75,16615.39 5352.43,16581.48"/>
    <poly id="107655333" type="sport" color="0.31,0.90,0.49" fill="1" layer="2" shape="5138.74,16600.65 5160.83,16600.26 5162.39,16554.22 5139.36,16553.95 5138.74,16600.65"/>
    <poly id="107655334" type="sport" color="0.31,0.90,0.49" fill="1" layer="2" shape="5135.11,16630.70 5157.53,16630.66 5157.84,16614.29 5135.33,16614.00 5135.11,16630.70"/>
    <poly id="107655335" type="sport" color="0.31,0.90,0.49" fill="1" layer="2" shape="5311.60,16805.46 5290.95,16813.35 5274.53,16810.35 5254.45,16801.33 5218.48,16701.36 5222.80,16680.01 5235.85,16663.92 5254.52,16656.16 5274.44,16656.74 5292.51,16665.68 5303.42,16677.73 5333.45,16766.12 5330.67,16785.92 5323.53,16794.58 5311.60,16805.46"/>
    <poly id="107655336" type="sport" color="0.31,0.90,0.49" fill="1" layer="2" shape="5257.47,16794.68 5223.28,16703.53 5296.81,16676.84 5329.79,16767.38 5257.47,16794.68"/>
    <poly id="107655337" type="sport" color="0.31,0.90,0.49" fill="1" layer="2" shape="5333.04,16888.08 5355.45,16888.05 5355.78,16871.68 5333.26,16871.40 5333.04,16888.08"/>
    <poly id="107655338" type="building" color="1.00,0.90,0.90" fill="1" layer="2" shape="5329.16,16604.27 5349.64,16597.46 5362.15,16632.55 5342.47,16638.17 5329.16,16604.27"/>
    <poly id="107655339" type="building" color="1.00,0.90,0.90" fill="1" layer="2" shape="5283.28,16557.64 5357.57,16529.98 5370.08,16565.09 5296.59,16591.55 5283.28,16557.64"/>
    <poly id="107655341" type="sport" color="0.31,0.90,0.49" fill="1" layer="2" shape="5295.72,16403.46 5308.57,16399.62 5334.29,16398.29 5358.40,16403.05 5376.41,16413.87 5388.34,16426.31 5402.84,16449.60 5325.74,16477.50 5295.72,16403.46"/>
    <poly id="107655342" type="building" color="1.00,0.90,0.90" fill="1" layer="2" shape="5270.51,16457.22 5255.29,16442.15 5238.78,16467.26 5232.75,16472.05 5222.31,16471.67 5199.16,16448.39 5185.74,16463.35 5211.49,16488.05 5222.74,16491.63 5233.20,16491.21 5242.03,16489.60 5249.65,16484.40 5270.51,16457.22"/>
    <poly id="107655343" type="building" color="1.00,0.90,0.90" fill="1" layer="2" shape="5204.91,16540.21 5239.00,16506.63 5274.01,16540.90 5242.73,16575.27 5204.91,16540.21"/>
    <poly id="107655344" type="sport" color="0.31,0.90,0.49" fill="1" layer="2" shape="5140.85,16389.82 5209.09,16339.42 5289.51,16379.61 5255.29,16442.15 5238.78,16467.26 5232.75,16472.05 5222.31,16471.67 5199.16,16448.39 5140.85,16389.82"/>
    <poly id="107655345" type="sport" color="0.31,0.90,0.49" fill="1" layer="2" shape="5385.77,16553.48 5366.14,16499.35 5364.83,16486.33 5369.19,16478.91 5379.98,16474.29 5391.82,16477.60 5398.00,16490.11 5414.56,16542.19 5415.08,16552.91 5409.69,16559.57 5401.47,16562.64 5391.95,16559.85 5385.77,16553.48"/>
    <poly id="107655346" type="building" color="1.00,0.90,0.90" fill="1" layer="2" shape="5294.60,16601.14 5315.08,16594.32 5327.59,16629.41 5307.92,16635.04 5294.60,16601.14"/>
    <poly id="107655473" type="leisure" color="0.81,0.96,0.79" fill="1" layer="0" shape="5320.76,16674.74 5463.93,16627.30 5531.87,16833.99 5392.70,16875.44 5320.76,16674.74"/>
    <poly id="107655508" type="leisure" color="0.81,0.96,0.79" fill="1" layer="0" shape="5729.98,16446.74 5703.12,16363.71 5813.42,16330.18 5836.87,16416.95 5729.98,16446.74"/>
    <poly id="107656343" type="building" color="1.00,0.90,0.90" fill="1" layer="2" shape="4530.03,10991.37 4537.10,10996.52 4544.64,10992.76 4548.91,11005.41 4538.07,11011.50 4522.97,11003.10 4530.03,10991.37"/>
    <poly id="107656344" type="building" color="1.00,0.90,0.90" fill="1" layer="2" shape="4568.43,10980.77 4574.58,10992.47 4589.19,10982.14 4599.58,10991.97 4610.42,10986.32 4592.94,10967.61 4568.43,10980.77"/>
    <poly id="107656345" type="building" color="1.00,0.90,0.90" fill="1" layer="2" shape="5053.35,10902.47 5062.03,10906.21 5066.92,10897.57 5086.94,10912.17 5091.46,10905.78 5114.13,10919.61 5109.98,10925.25 5130.00,10937.21 5126.23,10945.83 5135.68,10951.82 5141.32,10936.82 5134.88,10932.25 5137.73,10925.35 5120.84,10912.85 5122.52,10906.12 5099.55,10888.41 5093.29,10897.53 5074.19,10885.56 5069.85,10890.86 5062.60,10888.71 5053.35,10902.47"/>
    <poly id="109795087" type="residential" color="0.92,0.92,0.89" fill="1" layer="-11" shape="9813.93,23328.99 9910.35,23244.77 9866.06,23170.24 9766.14,23267.50 9813.93,23328.99"/>
    <poly id="110860788" type="shop" color="0.93,0.78,1.00" fill="1" layer="2" shape="5871.84,10471.01 5948.25,10502.32 5997.40,10526.71 5996.92,10516.23 5996.00,10467.03 5993.24,10436.43 5992.04,10432.53 5990.11,10429.92 5987.75,10427.21 5984.47,10424.08 5981.69,10421.54 5978.54,10420.06 5974.40,10419.18 5970.44,10418.99 5964.48,10420.38 5957.71,10424.12 5871.84,10471.01"/>
    <poly id="110861431" type="landuse" color="0.76,0.76,0.51" fill="1" layer="-4" shape="6299.80,11132.22 6071.50,11138.18 6049.33,10775.47 6051.17,10772.91 6054.62,10770.45 6065.70,10768.96 6134.17,10769.10 6165.80,10770.54 6266.85,10791.33 6288.51,10796.68 6296.33,10799.65 6301.15,10808.02 6304.27,10876.83 6308.08,11010.85 6308.82,11101.20 6307.65,11117.95 6305.86,11124.53 6299.80,11132.22"/>
    <poly id="119407626" type="shop" color="0.93,0.78,1.00" fill="1" layer="2" shape="6778.72,13822.82 6764.93,13719.88 6965.87,13768.41 6938.84,13863.62 6778.72,13822.82"/>
    <poly id="119417416" type="parking" color="0.72,0.72,0.70" fill="1" layer="-2" shape="6547.08,14083.28 6544.41,14040.36 6473.25,14043.05 6474.97,14086.45 6547.08,14083.28"/>
    <poly id="119422352" type="sport" color="0.31,0.90,0.49" fill="1" layer="2" shape="6499.07,13845.03 6501.11,13882.37 6439.89,13884.52 6438.18,13846.86 6499.07,13845.03"/>
    <poly id="119422357" type="sport" color="0.31,0.90,0.49" fill="1" layer="2" shape="6558.32,13974.52 6646.51,13968.72 6652.87,14050.13 6562.08,14054.40 6558.32,13974.52"/>
    <poly id="121751317" type="tourism" color="0.81,0.96,0.79" fill="1" layer="-10" shape="3465.02,10924.08 3420.92,10938.36 3374.43,10938.43 3344.62,10938.48 3314.81,10940.66 3289.78,10945.68 3274.28,10938.59 3282.61,10929.10 3306.44,10923.15 3326.69,10911.27 3343.35,10892.29 3365.27,10882.78 3393.40,10878.00 3412.45,10859.02 3423.39,10842.43 3433.88,10842.41 3437.50,10869.64 3441.60,10893.09 3454.26,10912.25 3465.02,10924.08"/>
    <poly id="121760451" type="tourism" color="0.81,0.96,0.79" fill="1" layer="-10" shape="3915.10,11313.22 3915.05,11281.25 3874.76,11283.21 3873.47,11313.59 3915.10,11313.22"/>
    <poly id="121760700" type="leisure" color="0.81,0.96,0.79" fill="1" layer="0" shape="3923.54,11372.42 3921.01,11280.05 4030.69,11277.51 4048.58,11276.30 4047.90,11301.88 4030.73,11304.75 4033.19,11348.56 4053.69,11347.82 4054.68,11366.30 3923.54,11372.42"/>
    <poly id="121815222" type="leisure" color="0.81,0.96,0.79" fill="1" layer="0" shape="3304.85,13404.56 3317.84,13326.37 3248.67,13315.82 3238.07,13398.74 3304.85,13404.56"/>
    <poly id="121820632" type="tourism" color="0.81,0.96,0.79" fill="1" layer="-10" shape="3960.09,10862.06 4030.43,10864.33 4012.54,10854.88 3995.82,10838.32 3982.68,10826.50 3996.97,10812.27 3985.04,10806.37 3974.31,10814.67 3956.43,10814.70 3960.09,10862.06"/>
    <poly id="121822508" type="water" color="0.71,0.82,0.82" fill="0" layer="-10" shape="159.68,12242.70 195.47,12258.04 241.99,12267.44 273.01,12287.52 300.44,12288.66 350.49,12271.99 382.63,12241.15 433.87,12228.05 473.19,12212.58 522.08,12223.16 543.58,12242.08 547.17,12253.91 541.24,12271.68 536.50,12289.46 534.15,12314.33 536.59,12340.38 544.99,12374.71 552.30,12400.57 571.28,12418.49 610.65,12431.45 623.80,12449.20 640.65,12471.49 669.15,12482.28 693.11,12477.33 703.67,12450.25 704.80,12412.34 723.95,12380.17 736.88,12343.61 753.56,12337.66 766.70,12353.03 807.36,12352.79 837.03,12345.82 870.42,12342.20 894.86,12353.26 915.16,12369.82 935.45,12386.36 956.93,12399.35 984.36,12399.31 1011.76,12390.98 1033.20,12380.29 1048.68,12366.04 1065.37,12367.20 1090.43,12383.74 1107.14,12395.56 1113.14,12413.31 1132.23,12423.94 1159.67,12434.55 1175.17,12432.16 1194.23,12430.94 1208.55,12432.10 1224.06,12438.01 1241.94,12435.60 1269.36,12434.37 1300.35,12431.96 1319.44,12436.66 1342.08,12435.44 1358.78,12443.70 1380.25,12449.60 1410.07,12449.55 1424.36,12442.41 1445.81,12440.01 1464.88,12430.51 1487.50,12417.44 1504.18,12409.12 1522.07,12411.46 1543.53,12412.61 1560.22,12409.03 1580.49,12407.82 1594.79,12408.98 1603.11,12394.75 1618.60,12388.80 1642.43,12378.10 1662.69,12370.97 1681.72,12347.26 1699.57,12323.54 1726.99,12325.86 1748.47,12335.31 1767.58,12355.41 1781.92,12370.78 1796.23,12377.86 1814.09,12367.18 1827.18,12355.31 1848.62,12331.59 1865.27,12310.25 1881.93,12290.09 1895.00,12265.20 1909.24,12227.28 1916.35,12198.84 1924.65,12170.41 1947.27,12143.13 1968.67,12111.12 1985.33,12087.41 1995.54,12074.66 2008.93,12059.44 2018.15,12042.40 2024.85,12025.60 2038.12,12009.28 2052.06,11995.26 2068.61,11983.06 2084.08,11962.57 2120.29,11955.97 2149.37,11985.01 2162.29,11999.20 2176.84,12010.73 2181.45,12026.08 2190.57,12023.41 2198.60,12026.29 2216.92,12018.39 2217.86,11986.32 2222.39,11969.79 2239.06,11956.73 2254.53,11938.94 2262.84,11917.61 2266.70,11884.15 2236.48,11858.79 2218.82,11847.23 2207.16,11831.85 2198.43,11820.44 2201.65,11802.67 2214.32,11781.12 2246.71,11764.34 2263.71,11750.79 2283.99,11728.09 2269.65,11703.25 2262.84,11682.03 2256.11,11658.66 2255.06,11631.12 2263.53,11604.04 2285.52,11592.70 2323.49,11586.47 2345.16,11570.26 2347.91,11546.24 2351.71,11518.86 2367.08,11498.20 2384.43,11466.52 2384.69,11436.92 2387.81,11399.02 2391.93,11384.47 2415.76,11373.77 2432.43,11359.54 2446.72,11346.49 2465.77,11332.25 2469.32,11318.03 2471.68,11296.71 2478.81,11281.30 2479.96,11256.43 2478.73,11230.38 2481.06,11198.39 2481.01,11168.79 2483.36,11146.29 2476.17,11121.43 2474.94,11098.93 2473.70,11072.87 2468.89,11048.01 2456.97,11046.85 2436.69,11043.33 2422.35,11020.85 2411.57,10992.44 2410.35,10969.95 2422.23,10943.87 2434.11,10920.16 2443.61,10897.65 2439.98,10862.12 2435.16,10830.15 2429.17,10808.86 2431.51,10783.97 2442.21,10763.83 2468.41,10747.20 2492.24,10735.32 2512.48,10719.90 2530.33,10702.10 2544.62,10685.50 2562.44,10651.13 2569.58,10636.91 2582.67,10622.67 2599.34,10610.80 2614.85,10615.52 2620.83,10632.08 2629.20,10648.65 2644.72,10658.11 2663.80,10665.17 2680.50,10662.78 2697.17,10647.36 2709.06,10634.31 2716.17,10608.24 2737.60,10589.27 2766.20,10576.18 2788.84,10565.49 2811.47,10557.17 2830.53,10542.93 2840.03,10521.60 2842.37,10490.80 2841.11,10454.09 2827.94,10417.40 2829.08,10383.05 2852.90,10373.54 2888.68,10373.48 2918.49,10378.17 2945.93,10387.60 2973.36,10399.40 3001.99,10411.20 3035.38,10411.14 3048.49,10406.39 3063.97,10399.25 3079.47,10394.50 3094.97,10393.29 3120.01,10396.80 3133.14,10410.99 3146.28,10423.99 3157.04,10439.38 3172.56,10452.38 3191.62,10446.42 3208.30,10441.66 3220.21,10432.17 3232.12,10422.67 3245.21,10408.44 3257.11,10395.40 3270.22,10389.45 3282.13,10381.15 3303.57,10370.45 3328.59,10360.94 3344.09,10358.55 3363.16,10356.14 3382.22,10345.45 3400.10,10338.32 3421.54,10329.99 3442.99,10326.41 3463.26,10324.01 3482.33,10318.06 3501.39,10312.11 3520.46,10307.34 3535.69,10295.07 3553.81,10285.96 3574.06,10274.09 3594.31,10263.40 3612.18,10252.71 3631.25,10246.76 3650.33,10255.03 3667.07,10285.78 3673.37,10309.06 3676.69,10335.52 3683.86,10350.90 3694.63,10371.01 3711.34,10385.20 3725.67,10399.38 3742.38,10413.57 3754.33,10426.58 3766.26,10436.03 3784.19,10456.14 3797.34,10480.98 3808.10,10504.65 3821.26,10531.88 3836.81,10561.45 3845.20,10592.23 3857.17,10621.83 3854.84,10653.80 3857.26,10678.66 3854.92,10701.17 3852.57,10726.05 3854.99,10746.17 3866.80,10753.38 3881.22,10747.31 3897.89,10736.64 3918.14,10723.57 3941.96,10704.59 3961.00,10689.16 3984.83,10676.09 4007.46,10668.96 4020.61,10679.60 4031.36,10699.70 4029.01,10718.66 4012.35,10736.46 3993.30,10755.43 3982.59,10770.84 3977.61,10781.75 3988.17,10792.39 4007.28,10786.27 4021.94,10770.77 4043.38,10757.71 4060.06,10750.59 4074.36,10744.64 4092.22,10732.77 4108.91,10730.38 4129.17,10727.98 4156.61,10733.85 4179.26,10737.37 4204.30,10739.70 4223.40,10751.51 4244.87,10760.96 4262.77,10772.77 4278.29,10785.77 4296.18,10792.84 4311.70,10801.11 4331.98,10808.19 4358.20,10803.40 4378.48,10812.85 4396.37,10821.11 4396.40,10835.32 4377.34,10843.64 4359.48,10855.51 4338.03,10865.02 4316.58,10874.53 4299.92,10888.77 4289.21,10902.99 4283.27,10917.21 4277.35,10943.27 4280.97,10968.15 4283.38,10989.45 4291.76,11009.57 4291.80,11030.89 4295.39,11043.91 4299.00,11060.49 4307.37,11074.69 4319.29,11075.85 4331.21,11073.47 4347.90,11072.26 4363.41,11084.08 4371.78,11097.09 4375.39,11121.95 4375.42,11140.90 4382.61,11158.65 4392.17,11172.84 4408.88,11188.22 4422.03,11201.22 4437.52,11202.38 4454.20,11196.43 4480.43,11190.47 4498.30,11189.26 4519.76,11186.86 4537.65,11189.20 4548.40,11206.94 4560.36,11229.42 4572.68,11250.26 4576.26,11256.48 4624.18,11277.38"/>
    <poly id="121834760" type="tourism" color="0.81,0.96,0.79" fill="1" layer="-10" shape="4079.21,11418.32 4175.75,11393.30 4180.79,11400.92 4161.17,11410.44 4083.37,11429.26 4079.21,11418.32"/>
    <poly id="122082121" type="tourism" color="0.81,0.96,0.79" fill="1" layer="-10" shape="3878.54,10935.08 3909.53,10935.03 3909.83,10970.03 3877.41,10970.61 3878.54,10935.08"/>
    <poly id="122084036" type="tourism" color="0.81,0.96,0.79" fill="1" layer="-10" shape="3366.18,11123.03 3357.80,11102.90 3330.38,11110.05 3337.58,11133.72 3366.18,11123.03"/>
    <poly id="122084674" type="tourism" color="0.81,0.96,0.79" fill="1" layer="-10" shape="3847.73,11054.75 3854.88,11054.74 3853.72,11070.13 3847.73,11054.75"/>
    <poly id="122084715" type="water" color="0.71,0.82,0.82" fill="0" layer="-10" shape="3683.77,10663.02 3709.99,10658.23 3727.88,10655.84 3744.56,10653.44 3758.86,10651.05 3768.39,10648.67 3777.93,10645.10 3787.46,10643.90 3799.38,10640.33 3811.30,10637.94 3823.23,10637.93 3837.53,10636.71 3843.50,10639.08 3857.68,10641.42"/>
    <poly id="122084716" type="water" color="0.71,0.82,0.82" fill="0" layer="-10" shape="2867.28,10789.85 2886.33,10766.14 2904.17,10747.16 2918.46,10727.00 2933.91,10704.47 2948.19,10684.31 2960.07,10657.06 2964.80,10634.55 2973.11,10613.22 2980.24,10594.26 2986.16,10574.12 2993.31,10564.63"/>
    <poly id="122115518" type="building" color="1.00,0.90,0.90" fill="1" layer="2" shape="4044.91,16529.06 4055.70,16560.97 3977.30,16580.57 4005.71,16538.01 4044.91,16529.06"/>
    <poly id="122391798" type="amenity" color="0.93,0.78,0.78" fill="1" layer="2" shape="5875.08,9678.97 5929.49,9532.32 6256.17,9613.29 6176.21,9871.95 5875.08,9678.97"/>
    <poly id="122403281" type="unknown" color="0.20,0.50,1.00" fill="1" layer="-1" shape="3670.76,10655.51 3658.80,10635.39 3669.50,10612.87 3655.14,10583.29 3637.25,10579.77 3612.20,10565.59 3582.39,10565.64 3559.72,10557.39 3537.06,10551.50 3504.85,10537.34 3471.45,10525.56 3446.42,10531.51 3424.98,10539.84 3399.92,10533.96 3379.65,10529.25 3353.41,10524.56 3325.96,10504.47 3291.36,10491.50 3284.19,10480.85 3296.08,10464.24 3317.55,10463.03 3327.07,10453.55 3338.96,10433.39 3355.62,10409.68 3383.02,10406.08 3421.18,10400.10 3428.30,10388.25 3453.31,10369.25 3468.79,10356.20 3493.81,10345.50 3511.68,10336.00 3535.51,10326.48 3554.59,10328.83 3582.02,10333.52 3601.11,10347.70 3619.03,10365.44 3634.54,10377.26 3654.83,10386.70 3675.12,10400.88 3697.81,10419.79 3710.94,10432.80 3721.70,10452.92 3730.09,10480.14 3742.05,10504.99 3746.86,10529.85 3748.09,10551.17 3755.26,10566.55 3760.07,10589.04 3768.45,10610.35 3779.20,10626.92 3781.61,10638.75 3785.21,10650.59 3764.95,10655.36 3747.06,10660.13 3731.58,10662.52 3717.27,10666.09 3694.63,10673.24 3681.52,10673.26 3670.76,10655.51"/>
    <poly id="122404084" type="unknown" color="0.20,0.50,1.00" fill="1" layer="-1" shape="2971.95,10560.70 2958.87,10579.66 2951.74,10597.44 2943.42,10614.03 2933.91,10628.26 2922.02,10648.41 2913.70,10666.19 2911.34,10682.77 2904.22,10702.92 2895.89,10714.77 2876.85,10732.57 2860.16,10737.33 2847.08,10753.94 2843.54,10777.63 2853.10,10791.82 2870.98,10792.98 2884.11,10796.51 2899.60,10796.48 2915.09,10791.72 2921.04,10778.69 2922.21,10765.66 2924.56,10751.44 2928.12,10740.77 2936.46,10733.66 2942.41,10724.17 2949.54,10713.50 2956.68,10702.83 2966.19,10687.42 2970.95,10676.76 2973.31,10666.09 2976.87,10651.88 2981.61,10640.03 2986.37,10632.91 2991.13,10621.06 2992.31,10613.95 2993.48,10605.67 2994.66,10598.55 3001.78,10578.41 3002.96,10567.75 2971.95,10560.70"/>
    <poly id="122404606" type="water" color="0.71,0.82,0.82" fill="0" layer="-10" shape="4624.18,11277.38 4632.04,11282.44 4639.49,11287.14 4650.84,11297.22 4666.93,11306.04 4685.13,11310.75 4703.31,11313.67 4724.78,11316.90 4744.75,11319.54 4760.56,11326.62 4779.95,11335.47 4791.89,11342.58 4794.87,11349.36 4789.81,11357.06 4774.65,11366.00 4755.63,11367.91 4731.78,11369.13 4716.30,11377.44 4698.43,11386.95 4684.16,11407.10 4680.61,11423.69 4683.02,11446.19 4693.78,11462.74 4706.91,11472.20 4720.03,11480.47 4734.36,11489.91 4752.26,11498.18 4765.38,11508.82 4774.95,11524.19 4788.85,11527.61"/>
    <poly id="122463628" type="tourism" color="0.81,0.96,0.79" fill="1" layer="-10" shape="2780.48,12605.76 2795.94,12574.94 2800.64,12537.04 2795.84,12514.54 2780.32,12500.36 2761.23,12494.47 2737.38,12487.40 2711.14,12488.63 2690.88,12488.66 2669.42,12487.51 2658.72,12504.10 2665.88,12517.13 2676.65,12537.23 2687.41,12557.35 2695.79,12572.73 2701.77,12586.93 2728.00,12589.27 2745.90,12593.97 2757.82,12599.88 2780.48,12605.76"/>
    <poly id="122463711" type="tourism" color="0.81,0.96,0.79" fill="1" layer="-10" shape="2835.17,12507.38 2823.22,12495.56 2800.57,12489.66 2777.90,12486.15 2761.20,12480.25 2782.64,12458.91 2802.88,12447.03 2824.35,12448.18 2844.64,12462.36 2862.53,12471.81 2879.25,12489.54 2901.92,12503.71 2929.38,12522.62 2954.43,12534.42 2949.71,12560.48 2942.59,12582.99 2934.27,12600.78 2922.38,12620.92 2883.03,12616.25 2847.26,12611.58 2817.45,12608.06 2812.65,12589.13 2840.05,12583.16 2862.69,12568.91 2880.55,12555.86 2891.26,12542.82 2884.07,12521.51 2862.62,12522.73 2835.17,12507.38"/>
    <poly id="136712993" type="water" color="0.71,0.82,0.82" fill="0" layer="-10" shape="4774.78,20052.02 4787.28,20052.23 4822.41,20062.36 4836.50,20069.93 4855.31,20087.87 4865.24,20099.08 4873.61,20116.50 4880.42,20139.29 4881.88,20182.28 4906.69,20257.89 4912.46,20272.90 4914.56,20282.40 4914.08,20309.16 4918.62,20319.69 4934.48,20341.25 4935.35,20348.50 4936.26,20375.79 4939.07,20384.08 4943.94,20388.20 4954.39,20396.30 4963.95,20401.82 4974.22,20411.47 4978.24,20419.24 4983.47,20427.69 4987.31,20438.05 4990.98,20450.82 4996.38,20462.20 5004.06,20473.25 5028.00,20537.22 5033.24,20557.24 5038.17,20589.35 5044.12,20618.36 5049.71,20634.58 5061.55,20644.92 5061.97,20695.00 5050.20,20727.48 5048.14,20737.16 5053.02,20741.64 5053.38,20752.70 5041.23,20766.53 5038.63,20771.37 5041.28,20792.44"/>
    <poly id="136793503" type="building" color="1.00,0.90,0.90" fill="1" layer="2" shape="4270.27,19159.84 4275.32,19103.40 4379.19,19112.57 4374.13,19169.02 4270.27,19159.84"/>
    <poly id="136795265" type="residential" color="0.92,0.92,0.89" fill="1" layer="-11" shape="4067.87,23869.41 3599.27,23946.71 3393.26,23612.21 3450.86,23497.31 3299.79,23395.50 3386.11,23172.13 3324.92,23057.42 3215.85,23111.82 3122.86,23175.75 2952.13,22828.43 2919.82,22704.11 3003.07,22573.22 2883.79,22273.64 2954.31,22203.37 3542.11,22374.61 3491.32,22725.49 3670.95,22629.53 3704.94,22674.40 3796.42,22795.15 3649.09,23002.68 3662.10,23107.90 3758.53,23174.70 3742.26,23047.17 3979.87,23065.91 4002.49,23161.55 4252.95,23180.27 4387.88,23237.45 4375.49,23514.93 4555.66,23750.62 4067.87,23869.41"/>
    <poly id="136989400" type="water" color="0.71,0.82,0.82" fill="0" layer="-10" shape="4641.74,10624.67 4634.35,10611.28 4607.59,10562.77 4551.44,10483.51"/>
    <poly id="138139141" type="tourism" color="0.81,0.96,0.79" fill="1" layer="-10" shape="4544.61,19529.82 4567.69,19504.77 4590.86,19524.43 4570.39,19552.58 4544.61,19529.82"/>
    <poly id="138779043" type="landuse" color="0.76,0.76,0.51" fill="1" layer="-4" shape="10903.27,10246.83 10894.91,10239.74 10684.18,10429.54 10690.58,10439.19 10903.27,10246.83"/>
    <poly id="138779295" type="water" color="0.71,0.82,0.82" fill="1" layer="-10" shape="10956.64,10062.01 10853.41,10114.45 10737.09,9940.36 10750.45,9830.39 10782.14,9772.13 10797.34,9706.53 10798.66,9661.97 10654.33,9339.07 10606.58,9303.60 10591.82,9275.03 10585.82,9247.80 10589.77,9223.10 10593.30,9193.49 10602.40,9177.90 10657.26,9190.84 10672.81,9220.43 10743.29,9310.33 10760.07,9375.44 10786.39,9434.61 10810.39,9536.42 10820.04,9608.64 10868.96,9637.00 10956.64,10062.01"/>
    <poly id="146820312" type="shop" color="0.93,0.78,1.00" fill="1" layer="2" shape="6362.04,22531.65 6106.46,22624.16 6002.46,22361.43 6124.94,22299.61 6285.49,22267.54 6362.21,22173.48 6360.56,22273.80 6325.82,22351.56 6362.04,22531.65"/>
    <poly id="146820313" type="parking" color="0.72,0.72,0.70" fill="1" layer="-2" shape="6134.94,22598.27 6098.13,22423.89 6043.13,22449.82 6106.43,22608.76 6134.94,22598.27"/>
    <poly id="146820314" type="building" color="1.00,0.90,0.90" fill="1" layer="2" shape="6155.53,22579.35 6142.43,22517.51 6306.48,22483.20 6319.60,22545.04 6155.53,22579.35"/>
    <poly id="146820315" type="building" color="1.00,0.90,0.90" fill="1" layer="2" shape="6186.25,22477.04 6159.70,22353.70 6111.80,22363.88 6138.36,22487.21 6186.25,22477.04"/>
    <poly id="147219408" type="water" color="0.71,0.82,0.82" fill="0" layer="-10" shape="11294.59,23807.39 11318.82,23771.87 11340.21,23733.33 11372.18,23724.64 11403.30,23716.60 11421.70,23713.62 11448.07,23714.49 11469.63,23706.02 11479.26,23691.00 11477.04,23671.72 11486.38,23650.81 11496.18,23635.19 11500.80,23624.02 11503.30,23608.31 11514.40,23583.45 11528.06,23551.28 11533.27,23535.83 11543.44,23521.79 11557.86,23506.63 11574.02,23494.24 11591.70,23481.40 11612.38,23470.35 11617.86,23452.65 11628.67,23423.26 11640.74,23406.18 11655.70,23377.94 11669.91,23357.03 11686.30,23334.52 11709.41,23315.88 11731.15,23300.67 11756.16,23287.65 11784.46,23279.86 11807.45,23270.96 11831.78,23253.44 11856.11,23242.24 11884.41,23231.38 11921.27,23227.82 11946.80,23231.65 11974.16,23239.06 12001.78,23251.04 12035.69,23261.42 12067.57,23274.00 12098.89,23284.95 12128.78,23297.94 12148.93,23301.59 12162.74,23296.97 12172.80,23282.20 12183.20,23258.27 12213.89,23245.43 12247.78,23231.65 12262.05,23215.05 12276.33,23196.09 12279.87,23181.87 12273.89,23165.30 12276.25,23146.35 12275.02,23128.60 12279.76,23108.45 12286.89,23093.05 12292.71,23077.41 12293.97,23045.67 12292.75,23026.73 12289.13,22995.94 12289.09,22969.91 12289.04,22940.29 12290.20,22921.35 12287.75,22882.28 12291.26,22839.65 12290.04,22818.33 12292.37,22780.44 12295.89,22748.47 12299.41,22715.30 12301.75,22685.70 12302.90,22658.46 12308.83,22634.77 12318.20,22610.84 12336.04,22575.28 12350.41,22545.89 12365.85,22511.52 12381.30,22483.08 12395.45,22455.60 12410.89,22418.86 12423.96,22391.61 12447.60,22340.77 12481.28,22265.64 12487.03,22244.91 12490.57,22222.41 12494.07,22173.86 12504.69,22107.53 12507.03,22075.56 12509.36,22044.77 12512.89,22012.79 12516.41,21974.89 12518.74,21939.36 12522.26,21902.65 12528.15,21857.64 12532.84,21807.90 12536.35,21768.82 12538.69,21734.48 12539.84,21707.24 12548.14,21678.81 12575.79,21643.96 12594.53,21618.35 12617.14,21587.52 12639.74,21560.26 12668.30,21529.43 12700.31,21491.24 12724.24,21466.58 12749.24,21444.04 12799.12,21404.66 12833.76,21374.05 12873.05,21340.83 12909.84,21315.67 12944.51,21301.64 12994.56,21293.27 13057.62,21285.83 13100.65,21287.19 13149.41,21290.44 13204.38,21296.51 13256.72,21303.30 13312.88,21314.10 13358.19,21321.14 13395.15,21321.08 13430.90,21315.10 13457.11,21306.78 13491.56,21301.75 13534.46,21293.39 13566.63,21282.68 13609.65,21279.30 13650.18,21273.32 13671.62,21266.18 13691.87,21253.12 13718.08,21247.17 13741.92,21244.76 13765.63,21238.57 13789.57,21225.74 13821.60,21200.59 13856.25,21171.17 13889.58,21139.15 13920.52,21108.31 13949.09,21081.03 13981.21,21039.54 14001.31,21010.85 14022.85,20985.01 14040.68,20956.55 14059.71,20925.74 14081.00,20898.23 14108.51,20872.38 14134.70,20852.21 14160.89,20834.41 14183.53,20818.99 14207.34,20802.36 14240.69,20783.37 14264.49,20759.65 14283.40,20729.78 14303.62,20701.33 14323.98,20681.41 14334.67,20658.89 14335.83,20635.21 14335.81,20622.18 14331.01,20598.50 14329.76,20568.91 14323.77,20546.41 14315.39,20523.94 14308.21,20505.00 14301.02,20486.07 14295.04,20468.31 14290.24,20443.45 14290.20,20419.76 14292.55,20399.64 14294.91,20384.24 14296.07,20365.29 14290.09,20346.36 14281.71,20327.42 14275.72,20309.67 14268.55,20289.54 14264.94,20269.43 14261.33,20246.93 14256.52,20223.25 14250.53,20205.50 14238.57,20184.21 14229.02,20171.20 14223.04,20157.00 14223.02,20143.97 14228.95,20125.01 14243.23,20107.23 14259.89,20089.44 14281.20,20073.78 14302.77,20065.69 14319.45,20058.56 14332.54,20045.52 14333.70,20028.94 14332.48,20007.63 14326.49,19987.50 14324.07,19966.20 14318.09,19950.80 14316.86,19930.68 14315.64,19911.73 14315.62,19896.34 14316.79,19882.13 14325.11,19870.28 14338.23,19864.34 14354.91,19859.57 14376.35,19848.88 14390.63,19838.21 14401.22,19824.93 14401.32,19808.58 14395.33,19790.84 14389.35,19776.64 14384.56,19762.44 14382.14,19744.67 14384.51,19726.91 14391.63,19709.13 14407.10,19692.53 14433.18,19676.86 14462.95,19656.69 14487.96,19640.06 14523.81,19611.84 14559.52,19583.35 14596.44,19560.81 14624.90,19540.40 14641.56,19520.24 14661.77,19485.86 14680.93,19457.65 14698.63,19426.61 14717.79,19398.39 14736.82,19371.13 14760.49,19338.89 14791.53,19292.89 14824.85,19249.03 14851.02,19214.65 14874.70,19182.40 14887.90,19166.04 14892.64,19147.09 14893.80,19124.59 14891.39,19103.27 14896.12,19079.58 14900.85,19054.71 14906.76,19031.03 14916.26,19000.22 14923.36,18970.61 14928.11,18948.10 14934.02,18919.67 14938.74,18890.06 14947.03,18855.71 14958.90,18821.35 14971.84,18778.46 14987.39,18739.60 15005.10,18703.81 15015.90,18673.25 15031.36,18648.35 15042.05,18627.02 15050.35,18593.86 15055.07,18568.99 15055.06,18558.33 15053.84,18540.56 15051.43,18516.88 15043.05,18494.40 15034.68,18476.65 15029.87,18455.35 15027.45,18429.29 15027.41,18400.87 15029.76,18381.93 15034.49,18355.87 15041.59,18326.25 15048.71,18299.01 15048.68,18277.69 15045.07,18258.75 15039.07,18232.71 15022.32,18188.92 15010.37,18168.80 14999.60,18146.33 14992.40,18120.29 14989.99,18096.61 14987.57,18074.11 14982.75,18043.33 14974.38,18022.03 14966.00,18001.91 14956.44,17981.79 14948.06,17961.68 14938.50,17940.37 14928.92,17919.07 14922.92,17891.85 14914.53,17858.70 14906.14,17830.30 14898.94,17800.71 14892.94,17771.11 14884.55,17737.97 14880.94,17716.66 14871.37,17701.28 14859.42,17685.91 14843.91,17669.35 14825.99,17648.06 14810.45,17614.93 14806.84,17595.98 14797.26,17571.13 14785.32,17554.57 14770.98,17536.83 14753.08,17522.65 14742.33,17506.09 14731.58,17489.53 14726.77,17470.59 14721.98,17451.65 14714.80,17429.16 14704.63,17408.16 14698.04,17385.37 14701.56,17354.58 14706.30,17326.15 14708.63,17300.09 14710.98,17272.86 14709.75,17249.17 14704.94,17224.31 14700.13,17194.72 14698.90,17168.67 14703.63,17144.98 14713.02,17121.04 14728.59,17096.39 14739.29,17075.06 14771.04,17023.62 14790.32,17000.14"/>